9
 generated by VMD
 C         9.290000       17.540001      -20.540001
 C         7.870000       17.570000      -21.129999
 C         6.980000       18.430000      -20.230000
 N         7.910000       18.150000      -22.490000
 H         8.280000       19.070000      -22.559999
 C         7.500000       17.520000      -23.610001
 O         7.530000       18.080000      -24.709999
 C         6.960000       16.090000      -23.520000
 C         8.050000       15.080000      -23.900000
